Version 4
SHEET 1 3268 3012
WIRE -352 -112 -720 -112
WIRE -16 -112 -352 -112
WIRE -720 -32 -720 -112
WIRE -16 -16 -16 -32
WIRE 112 -16 -16 -16
WIRE 336 -16 112 -16
WIRE 480 -16 400 -16
WIRE 480 0 480 -16
WIRE -16 16 -16 -16
WIRE -496 64 -544 64
WIRE -352 64 -352 -32
WIRE -352 64 -432 64
WIRE -80 64 -352 64
WIRE -720 80 -720 48
WIRE -544 80 -544 64
WIRE -16 128 -16 112
WIRE 352 128 -16 128
WIRE -352 144 -352 64
WIRE -16 144 -16 128
WIRE 352 160 352 128
WIRE -544 240 -544 160
WIRE -352 240 -352 224
WIRE -352 240 -544 240
WIRE -16 240 -16 224
WIRE -16 240 -352 240
WIRE 352 240 352 224
WIRE 352 240 -16 240
WIRE 480 240 480 80
WIRE 480 240 352 240
WIRE -352 256 -352 240
WIRE -288 1216 -880 1216
WIRE 64 1216 -288 1216
WIRE -880 1296 -880 1216
WIRE 64 1312 64 1296
WIRE 144 1312 64 1312
WIRE 384 1312 144 1312
WIRE 624 1312 448 1312
WIRE 64 1344 64 1312
WIRE 624 1344 624 1312
WIRE -480 1392 -704 1392
WIRE -288 1392 -288 1296
WIRE -288 1392 -416 1392
WIRE 0 1392 -288 1392
WIRE -880 1408 -880 1376
WIRE -704 1408 -704 1392
WIRE 64 1456 64 1440
WIRE 400 1456 64 1456
WIRE -288 1472 -288 1392
WIRE 64 1472 64 1456
WIRE 400 1488 400 1456
WIRE -704 1568 -704 1488
WIRE -288 1568 -288 1552
WIRE -288 1568 -704 1568
WIRE 64 1568 64 1552
WIRE 64 1568 -288 1568
WIRE 400 1568 400 1552
WIRE 400 1568 64 1568
WIRE 624 1568 624 1424
WIRE 624 1568 400 1568
WIRE -288 1584 -288 1568
WIRE -3680 2112 -3856 2112
WIRE -3744 2320 -4192 2320
WIRE -4192 2400 -4192 2320
WIRE -3680 2448 -3680 2112
WIRE -3744 2496 -3744 2320
WIRE -4192 2512 -4192 2480
WIRE -592 2512 -960 2512
WIRE -256 2512 -592 2512
WIRE 512 2512 -256 2512
WIRE 512 2560 512 2512
WIRE -960 2592 -960 2512
WIRE -256 2608 -256 2592
WIRE -128 2608 -256 2608
WIRE 448 2608 -128 2608
WIRE -256 2640 -256 2608
WIRE -3680 2672 -3680 2544
WIRE -3680 2672 -3824 2672
WIRE -3824 2688 -3824 2672
WIRE -736 2688 -784 2688
WIRE -592 2688 -592 2592
WIRE -592 2688 -672 2688
WIRE -320 2688 -592 2688
WIRE 512 2688 512 2656
WIRE 592 2688 512 2688
WIRE 720 2688 656 2688
WIRE -960 2704 -960 2672
WIRE -784 2704 -784 2688
WIRE 720 2704 720 2688
WIRE 512 2720 512 2688
WIRE -256 2752 -256 2736
WIRE 112 2752 -256 2752
WIRE -592 2768 -592 2688
WIRE -256 2768 -256 2752
WIRE 112 2784 112 2752
WIRE -784 2864 -784 2784
WIRE -592 2864 -592 2848
WIRE -592 2864 -784 2864
WIRE -256 2864 -256 2848
WIRE -256 2864 -592 2864
WIRE 112 2864 112 2848
WIRE 112 2864 -256 2864
WIRE 512 2864 512 2800
WIRE 512 2864 112 2864
WIRE 720 2864 720 2784
WIRE 720 2864 512 2864
WIRE -592 2880 -592 2864
FLAG -720 80 0
FLAG -352 256 0
FLAG -4192 2512 0
FLAG -3824 2688 0
FLAG -3856 2192 0
FLAG -880 1408 0
FLAG -288 1584 0
FLAG -704 1392 vin_ac_50
FLAG 624 1312 vout_ac_50
FLAG -544 64 vin_ac
FLAG 480 -16 vout_ac
FLAG 112 -16 vc_ac
FLAG 144 1312 vc_ac_50
FLAG -960 2704 0
FLAG -592 2880 0
FLAG -784 2688 vin_ef
FLAG 720 2688 vout_ef
FLAG -128 2608 vc_ac
DATAFLAG 64 1312 ""
DATAFLAG 64 1328 ""
SYMBOL voltage -720 -48 R0
WINDOW 123 0 0 Left 0
WINDOW 39 0 0 Left 0
SYMATTR InstName Vcc_ac
SYMATTR Value 3.3
SYMBOL npn -80 16 R0
SYMATTR InstName Q_ac
SYMATTR Value M_BFP640
SYMBOL res -368 -128 R0
SYMATTR InstName R1_ac
SYMATTR Value 1000
SYMBOL res -368 128 R0
SYMATTR InstName R2_ac
SYMATTR Value 454
SYMBOL res -32 128 R0
SYMATTR InstName Re_ac
SYMATTR Value 66
SYMBOL res -32 -128 R0
SYMATTR InstName Rc_ac
SYMATTR Value 330
SYMBOL voltage -4192 2384 R0
WINDOW 123 0 0 Left 0
WINDOW 39 0 0 Left 0
SYMATTR InstName V1
SYMATTR Value 0.8
SYMBOL npn -3744 2448 R0
SYMATTR InstName Q3
SYMATTR Value M_BFP640
SYMBOL voltage -3856 2096 R0
WINDOW 123 0 0 Left 0
WINDOW 39 0 0 Left 0
SYMATTR InstName V4
SYMATTR Value 2
SYMBOL res 464 -16 R0
SYMATTR InstName RL_out
SYMATTR Value 9999999999999999999999999
SYMBOL cap 336 160 R0
SYMATTR InstName Ce_ac
SYMATTR Value 100nF
SYMBOL cap 400 -32 R90
WINDOW 0 0 32 VBottom 2
WINDOW 3 32 32 VTop 2
SYMATTR InstName Cout_ac
SYMATTR Value 100nF
SYMBOL cap -432 48 R90
WINDOW 0 0 32 VBottom 2
WINDOW 3 32 32 VTop 2
SYMATTR InstName Cin_ac
SYMATTR Value 100nF
SYMBOL voltage -544 64 R0
WINDOW 3 -326 97 Left 2
WINDOW 123 0 0 Left 0
WINDOW 39 0 0 Left 0
SYMATTR Value SINE(0 1e-5 1e9 0 0 0 1000)
SYMATTR InstName V3
SYMBOL voltage -880 1280 R0
WINDOW 123 0 0 Left 0
WINDOW 39 0 0 Left 0
SYMATTR InstName Vcc_ac_50
SYMATTR Value 3.3
SYMBOL npn 0 1344 R0
SYMATTR InstName Q_ac_50
SYMATTR Value M_BFP640
SYMBOL res -304 1200 R0
SYMATTR InstName R1_ac_50
SYMATTR Value 1000
SYMBOL res -304 1456 R0
WINDOW 0 -54 -5 Left 2
SYMATTR InstName R2_ac_50
SYMATTR Value 454
SYMBOL res 48 1456 R0
WINDOW 0 -58 132 Left 2
WINDOW 3 -42 98 Left 2
SYMATTR InstName Re_ac_50
SYMATTR Value 66
SYMBOL res 48 1200 R0
SYMATTR InstName Rc_ac_50
SYMATTR Value 330
SYMBOL res 608 1328 R0
SYMATTR InstName RL_out_50
SYMATTR Value 50
SYMBOL cap 384 1488 R0
SYMATTR InstName Ce_ac_50
SYMATTR Value 100nF
SYMBOL cap 448 1296 R90
WINDOW 0 -25 -49 VBottom 2
WINDOW 3 -16 -22 VTop 2
SYMATTR InstName Cout_ac_50
SYMATTR Value 100nF
SYMBOL cap -416 1376 R90
WINDOW 0 0 32 VBottom 2
WINDOW 3 32 32 VTop 2
SYMATTR InstName Cin_ac_50
SYMATTR Value 100nF
SYMBOL voltage -704 1392 R0
WINDOW 0 14 113 Left 2
WINDOW 3 -326 97 Left 2
WINDOW 123 0 0 Left 0
WINDOW 39 0 0 Left 0
SYMATTR InstName v_ac_50
SYMATTR Value SINE(0 1e-5 1e9 0 0 0 1000)
SYMBOL voltage -960 2576 R0
WINDOW 123 0 0 Left 0
WINDOW 39 0 0 Left 0
SYMATTR InstName Vcc_ef
SYMATTR Value 3.3
SYMBOL npn -320 2640 R0
SYMATTR InstName Q_ef
SYMATTR Value M_BFP640
SYMBOL res -608 2496 R0
SYMATTR InstName R1_ef
SYMATTR Value 1000
SYMBOL res -608 2752 R0
SYMATTR InstName R2_ef
SYMATTR Value 454
SYMBOL res -272 2752 R0
SYMATTR InstName Re_ef
SYMATTR Value 66
SYMBOL res -272 2496 R0
SYMATTR InstName Rc_ef
SYMATTR Value 330
SYMBOL res 704 2688 R0
SYMATTR InstName RL_ef_out
SYMATTR Value 50
SYMBOL cap 96 2784 R0
SYMATTR InstName Ce_ef
SYMATTR Value 100nF
SYMBOL cap 656 2672 R90
WINDOW 0 0 32 VBottom 2
WINDOW 3 32 32 VTop 2
SYMATTR InstName Cout_ef
SYMATTR Value 100nF
SYMBOL cap -672 2672 R90
WINDOW 0 0 32 VBottom 2
WINDOW 3 32 32 VTop 2
SYMATTR InstName Cin_ef
SYMATTR Value 100nF
SYMBOL voltage -784 2688 R0
WINDOW 3 -326 97 Left 2
WINDOW 123 0 0 Left 0
WINDOW 39 0 0 Left 0
SYMATTR Value SINE(0 1e-5 1e9 0 0 0 1000)
SYMATTR InstName V2
SYMBOL npn 448 2560 R0
SYMATTR InstName Q1_ef
SYMATTR Value M_BFP640
SYMBOL res 496 2704 R0
SYMATTR InstName Re2_ef
SYMATTR Value 130
TEXT -2704 624 Left 2 !.tran 0 1e-6 0 1e-10
TEXT -696 -440 Left 5 ;DC-BIAS Circuit, Vcc: 3.3
TEXT -3696 2720 Left 2 ;DC-analysis
TEXT -4440 1928 Left 5 ;DC-BIAS Circuit, Vce: 2, Datasheet-check
TEXT 48 1616 Left 2 ;DC-analysis
TEXT -552 936 Left 5 ;DC-BIAS Circuit, Vcc: 3.3
TEXT -2688 400 Left 3 ;NOTES:\n- 20*log(|GAIN|) = GAIN_db
TEXT -2096 -48 Left 2 !.meas TRAN vin_ac_50_pp PP V(vin_ac_50)
TEXT -2096 -8 Left 2 !.meas TRAN vout_ac_50_pp PP V(vout_ac_50)
TEXT -2048 1296 Left 2 !.meas TRAN vin_ac_pp PP V(vin_ac)
TEXT -2048 1344 Left 2 !.meas TRAN vout_ac_pp PP V(vout_ac)
TEXT -2096 40 Left 2 !.meas TRAN ic_avg_ac_50 AVG Ic(Q_ac_50)
TEXT -2096 88 Left 2 !.meas TRAN ib_avg_ac_50 AVG Ib(Q_ac_50)
TEXT -2048 1384 Left 2 !.meas TRAN ic_avg_ac AVG Ic(Q_ac)
TEXT -2048 1424 Left 2 !.meas TRAN ib_avg_ac AVG Ib(Q_ac)
TEXT -2096 136 Left 2 !.meas TRAN gain_50 PARAM vout_ac_50_pp/vin_ac_50_pp
TEXT -2096 176 Left 2 !.meas TRAN Beta_50 PARAM ic_avg_ac_50/ib_avg_ac_50
TEXT -2048 1472 Left 2 !.meas TRAN gain PARAM vout_ac_pp/vin_ac_pp
TEXT -2048 1512 Left 2 !.meas TRAN Beta PARAM ic_avg_ac/ib_avg_ac
TEXT -520 2240 Left 5 ;DC-BIAS Circuit, Vcc: 3.3
TEXT -2200 2608 Left 2 !.meas TRAN vin_ef_pp PP V(vin_ef)
TEXT -2200 2656 Left 2 !.meas TRAN vout_ef_pp PP V(vout_ef)
TEXT -2200 2696 Left 2 !.meas TRAN ic_avg_ef AVG Ic(Q_ef)
TEXT -2200 2736 Left 2 !.meas TRAN ib_avg_ef AVG Ib(Q_ef)
TEXT -2200 2784 Left 2 !.meas TRAN gain_ef PARAM vout_ef_pp/vin_ef_pp
TEXT -2200 2824 Left 2 !.meas TRAN Beta_ef PARAM ic_avg_ef/ib_avg_ef
RECTANGLE Normal -3344 3008 -4448 1872 2
