Version 4
SHEET 1 3268 2740
WIRE -352 -112 -720 -112
WIRE -16 -112 -352 -112
WIRE -720 -32 -720 -112
WIRE -16 -16 -16 -32
WIRE 112 -16 -16 -16
WIRE 336 -16 112 -16
WIRE 480 -16 400 -16
WIRE 480 0 480 -16
WIRE -16 16 -16 -16
WIRE -496 64 -544 64
WIRE -352 64 -352 -32
WIRE -352 64 -432 64
WIRE -80 64 -352 64
WIRE -720 80 -720 48
WIRE -544 80 -544 64
WIRE -16 128 -16 112
WIRE 352 128 -16 128
WIRE 2928 128 2752 128
WIRE -352 144 -352 64
WIRE -16 144 -16 128
WIRE 352 160 352 128
WIRE -544 240 -544 160
WIRE -352 240 -352 224
WIRE -352 240 -544 240
WIRE -16 240 -16 224
WIRE -16 240 -352 240
WIRE 352 240 352 224
WIRE 352 240 -16 240
WIRE 480 240 480 80
WIRE 480 240 352 240
WIRE -352 256 -352 240
WIRE 2864 336 2416 336
WIRE 2416 416 2416 336
WIRE 2928 464 2928 128
WIRE 2864 512 2864 336
WIRE 2416 528 2416 496
WIRE 2928 688 2928 560
WIRE 2928 688 2784 688
WIRE 2784 704 2784 688
WIRE -288 1216 -880 1216
WIRE 64 1216 -288 1216
WIRE -880 1296 -880 1216
WIRE 64 1312 64 1296
WIRE 144 1312 64 1312
WIRE 384 1312 144 1312
WIRE 624 1312 448 1312
WIRE 64 1344 64 1312
WIRE 624 1344 624 1312
WIRE -480 1392 -704 1392
WIRE -288 1392 -288 1296
WIRE -288 1392 -416 1392
WIRE 0 1392 -288 1392
WIRE -880 1408 -880 1376
WIRE -704 1408 -704 1392
WIRE 64 1456 64 1440
WIRE 400 1456 64 1456
WIRE -288 1472 -288 1392
WIRE 64 1472 64 1456
WIRE 400 1488 400 1456
WIRE -704 1568 -704 1488
WIRE -288 1568 -288 1552
WIRE -288 1568 -704 1568
WIRE 64 1568 64 1552
WIRE 64 1568 -288 1568
WIRE 400 1568 400 1552
WIRE 400 1568 64 1568
WIRE 624 1568 624 1424
WIRE 624 1568 400 1568
WIRE -288 1584 -288 1568
FLAG -720 80 0
FLAG -352 256 0
FLAG 2416 528 0
FLAG 2784 704 0
FLAG 2752 208 0
FLAG -880 1408 0
FLAG -288 1584 0
FLAG -704 1392 vin_ac_50
FLAG 624 1312 vout_ac_50
FLAG -544 64 vin_ac
FLAG 480 -16 vout_ac
FLAG 112 -16 vc_ac
FLAG 144 1312 vc_ac_50
DATAFLAG 64 1312 ""
DATAFLAG 64 1328 ""
SYMBOL voltage -720 -48 R0
WINDOW 123 0 0 Left 0
WINDOW 39 0 0 Left 0
SYMATTR InstName Vcc_ac
SYMATTR Value 3.3
SYMBOL npn -80 16 R0
SYMATTR InstName Q_ac
SYMATTR Value M_BFP640
SYMBOL res -368 -128 R0
SYMATTR InstName R1_ac
SYMATTR Value 1000
SYMBOL res -368 128 R0
SYMATTR InstName R2_ac
SYMATTR Value 454
SYMBOL res -32 128 R0
SYMATTR InstName Re_ac
SYMATTR Value 66
SYMBOL res -32 -128 R0
SYMATTR InstName Rc_ac
SYMATTR Value 330
SYMBOL voltage 2416 400 R0
WINDOW 123 0 0 Left 0
WINDOW 39 0 0 Left 0
SYMATTR InstName V1
SYMATTR Value 0.8
SYMBOL npn 2864 464 R0
SYMATTR InstName Q3
SYMATTR Value M_BFP640
SYMBOL voltage 2752 112 R0
WINDOW 123 0 0 Left 0
WINDOW 39 0 0 Left 0
SYMATTR InstName V4
SYMATTR Value 2
SYMBOL res 464 -16 R0
SYMATTR InstName RL_out
SYMATTR Value 9999999999999999999999999
SYMBOL cap 336 160 R0
SYMATTR InstName Ce_ac
SYMATTR Value 100nF
SYMBOL cap 400 -32 R90
WINDOW 0 0 32 VBottom 2
WINDOW 3 32 32 VTop 2
SYMATTR InstName Cout_ac
SYMATTR Value 100nF
SYMBOL cap -432 48 R90
WINDOW 0 0 32 VBottom 2
WINDOW 3 32 32 VTop 2
SYMATTR InstName Cin_ac
SYMATTR Value 100nF
SYMBOL voltage -544 64 R0
WINDOW 3 -326 97 Left 2
WINDOW 123 0 0 Left 0
WINDOW 39 0 0 Left 0
SYMATTR Value SINE(0 1e-5 1e9 0 0 0 1000)
SYMATTR InstName V3
SYMBOL voltage -880 1280 R0
WINDOW 123 0 0 Left 0
WINDOW 39 0 0 Left 0
SYMATTR InstName Vcc_ac_50
SYMATTR Value 3.3
SYMBOL npn 0 1344 R0
SYMATTR InstName Q_ac_50
SYMATTR Value M_BFP640
SYMBOL res -304 1200 R0
SYMATTR InstName R1_ac_50
SYMATTR Value 1000
SYMBOL res -304 1456 R0
WINDOW 0 -54 -5 Left 2
SYMATTR InstName R2_ac_50
SYMATTR Value 454
SYMBOL res 48 1456 R0
WINDOW 0 -58 132 Left 2
WINDOW 3 -42 98 Left 2
SYMATTR InstName Re_ac_50
SYMATTR Value 66
SYMBOL res 48 1200 R0
SYMATTR InstName Rc_ac_50
SYMATTR Value 330
SYMBOL res 608 1328 R0
SYMATTR InstName RL_out_50
SYMATTR Value 50
SYMBOL cap 384 1488 R0
SYMATTR InstName Ce_ac_50
SYMATTR Value 100nF
SYMBOL cap 448 1296 R90
WINDOW 0 -25 -49 VBottom 2
WINDOW 3 -16 -22 VTop 2
SYMATTR InstName Cout_ac_50
SYMATTR Value 100nF
SYMBOL cap -416 1376 R90
WINDOW 0 0 32 VBottom 2
WINDOW 3 32 32 VTop 2
SYMATTR InstName Cin_ac_50
SYMATTR Value 100nF
SYMBOL voltage -704 1392 R0
WINDOW 0 14 113 Left 2
WINDOW 3 -326 97 Left 2
WINDOW 123 0 0 Left 0
WINDOW 39 0 0 Left 0
SYMATTR InstName v_ac_50
SYMATTR Value SINE(0 1e-5 1e9 0 0 0 1000)
TEXT 32 352 Left 2 ;DC-analysis
TEXT -2152 944 Left 2 !.tran 0 1e-6 0 1e-10
TEXT -696 -440 Left 5 ;DC-BIAS Circuit, Vcc: 3.3
TEXT 2912 736 Left 2 ;DC-analysis
TEXT 2168 -56 Left 5 ;DC-BIAS Circuit, Vce: 2, Datasheet-check
TEXT 48 1616 Left 2 ;DC-analysis
TEXT -552 936 Left 5 ;DC-BIAS Circuit, Vcc: 3.3
TEXT -2136 1240 Left 3 ;NOTES:\n- 20*log(|GAIN|) = GAIN_db
TEXT -2152 312 Left 2 !.meas TRAN vin_ac_50_pp PP V(vin_ac_50)
TEXT -2152 352 Left 2 !.meas TRAN vout_ac_50_pp PP V(vout_ac_50)
TEXT -2152 680 Left 2 !.meas TRAN vin_ac_pp PP V(vin_ac)
TEXT -2152 728 Left 2 !.meas TRAN vout_ac_pp PP V(vout_ac)
TEXT -2152 400 Left 2 !.meas TRAN ic_avg_ac_50 AVG Ic(Q_ac_50)
TEXT -2152 448 Left 2 !.meas TRAN ib_avg_ac_50 AVG Ib(Q_ac_50)
TEXT -2152 768 Left 2 !.meas TRAN ic_avg_ac AVG Ic(Q_ac)
TEXT -2152 808 Left 2 !.meas TRAN ib_avg_ac AVG Ib(Q_ac)
TEXT -2152 496 Left 2 !.meas TRAN gain_50 PARAM vout_ac_50_pp/vin_ac_50_pp
TEXT -2152 536 Left 2 !.meas TRAN Beta_50 PARAM ic_avg_ac_50/ib_avg_ac_50
TEXT -2152 856 Left 2 !.meas TRAN gain PARAM vout_ac_pp/vin_ac_pp
TEXT -2152 896 Left 2 !.meas TRAN Beta PARAM ic_avg_ac/ib_avg_ac
RECTANGLE Normal 3264 1024 2160 -112 2
