Version 4
SHEET 1 1164 3192
WIRE -80 592 -448 592
WIRE 256 592 -80 592
WIRE 528 592 256 592
WIRE -448 624 -448 592
WIRE -80 624 -80 592
WIRE 528 624 528 592
WIRE 464 672 256 672
WIRE -448 720 -448 704
WIRE -208 720 -272 720
WIRE -80 720 -80 704
WIRE -80 720 -144 720
WIRE 192 720 -80 720
WIRE -272 736 -272 720
WIRE -80 736 -80 720
WIRE 528 736 528 720
WIRE 608 736 528 736
WIRE 720 736 672 736
WIRE 848 736 784 736
WIRE 1088 736 848 736
WIRE 848 768 848 736
WIRE 528 784 528 736
WIRE 1088 784 1088 736
WIRE 256 800 256 768
WIRE -80 848 -80 816
WIRE 192 848 -80 848
WIRE 256 912 256 896
WIRE 528 912 528 864
WIRE 848 912 848 848
WIRE 1088 912 1088 864
WIRE -432 928 -464 928
WIRE -336 928 -368 928
WIRE -208 928 -336 928
WIRE -80 928 -80 848
WIRE -80 928 -144 928
WIRE -336 976 -336 928
WIRE -80 992 -80 928
WIRE 448 992 256 992
WIRE 256 1008 256 992
WIRE 448 1008 448 992
WIRE -464 1024 -464 928
WIRE -336 1104 -336 1056
WIRE -336 1104 -464 1104
WIRE -80 1104 -80 1072
WIRE -80 1104 -336 1104
WIRE 256 1104 256 1088
WIRE 256 1104 -80 1104
WIRE 448 1104 448 1072
WIRE 448 1104 256 1104
WIRE -80 1120 -80 1104
FLAG -448 720 0
FLAG -80 1120 0
FLAG -272 736 0
FLAG 528 912 0
FLAG 1088 912 0
FLAG 848 912 0
SYMBOL voltage -448 608 R0
WINDOW 123 0 0 Left 0
WINDOW 39 0 0 Left 0
SYMATTR InstName Vcc_ac2
SYMATTR Value 5
SYMBOL npn 192 800 R0
SYMATTR InstName q_ce
SYMATTR Value M_BFP640
SYMBOL res -96 608 R0
SYMATTR InstName R1
SYMATTR Value 2.2e3
SYMBOL res -96 976 R0
SYMATTR InstName R3
SYMATTR Value 1e3
SYMBOL res 240 992 R0
SYMATTR InstName Re
SYMATTR Value 50
SYMBOL res 240 576 R0
SYMATTR InstName Rc
SYMATTR Value 200
SYMBOL cap -144 912 R90
WINDOW 0 0 32 VBottom 2
WINDOW 3 32 32 VTop 2
SYMATTR InstName Cin
SYMATTR Value 100nF
SYMBOL res -96 720 R0
WINDOW 0 47 35 Left 2
WINDOW 3 49 67 Left 2
SYMATTR InstName R2
SYMATTR Value 1e3
SYMBOL npn 192 672 R0
SYMATTR InstName Q_cb
SYMATTR Value M_BFP640
SYMBOL cap -144 704 R90
WINDOW 0 0 32 VBottom 2
WINDOW 3 32 32 VTop 2
SYMATTR InstName Cin_base
SYMATTR Value 100nF
SYMBOL cap 464 1072 R180
WINDOW 0 24 56 Left 2
WINDOW 3 24 8 Left 2
SYMATTR InstName Ce
SYMATTR Value 100nF
SYMBOL npn 464 624 R0
SYMATTR InstName Q_ef
SYMATTR Value M_BFP640
SYMBOL res 512 768 R0
SYMATTR InstName Re_ef
SYMATTR Value 200
SYMBOL cap 672 720 R90
WINDOW 0 0 32 VBottom 2
WINDOW 3 32 32 VTop 2
SYMATTR InstName Cout
SYMATTR Value 100nF
SYMBOL res 1072 768 R0
SYMATTR InstName Rout
SYMATTR Value 50
SYMBOL res 240 896 R0
SYMATTR InstName R8
SYMATTR Value 0
SYMBOL voltage -464 1008 R0
WINDOW 123 24 124 Left 2
WINDOW 39 24 152 Left 2
SYMATTR Value2 AC 1 0
SYMATTR SpiceLine Rser=50
SYMATTR InstName V1
SYMATTR Value ""
SYMBOL cap 784 720 R90
WINDOW 0 0 32 VBottom 2
WINDOW 3 32 32 VTop 2
SYMATTR InstName C1
SYMATTR Value 5p
SYMBOL ind 832 752 R0
SYMATTR InstName L1
SYMATTR Value 2n
SYMBOL cap -368 912 R90
WINDOW 0 0 32 VBottom 2
WINDOW 3 32 32 VTop 2
SYMATTR InstName Cout1
SYMATTR Value 1e-12
SYMBOL ind -352 960 R0
SYMATTR InstName L2
SYMATTR Value 7e-9
TEXT -816 1224 Left 2 !.ac lin 1e3 1e9 2e9
TEXT -816 1288 Left 2 !.net I(Rout) V1  ; Rin & Rout determined from V4 and Rout
TEXT -880 776 Left 2 ;S-PARAMETERS
TEXT -816 1352 Left 2 !.meas AC S11_12e9 FIND S11(V1) AT 1.22e9
TEXT -848 472 Left 2 !.opt meascplxfmt=bode
TEXT -816 1384 Left 2 !.meas AC S12_12e9 FIND S12(V1) AT 1.22e9
TEXT -816 1424 Left 2 !.meas AC S21_12e9 FIND S21(V1) AT 1.22e9
TEXT -816 1464 Left 2 !.meas AC S22_12e9 FIND S22(V1) AT 1.22e9
TEXT -240 1352 Left 2 !.meas AC S11_15e9 FIND S11(V1) AT 1.5e9
TEXT -240 1384 Left 2 !.meas AC S12_15e9 FIND S12(V1) AT 1.5e9
TEXT -240 1424 Left 2 !.meas AC S21_15e9 FIND S21(V1) AT 1.5e9
TEXT -240 1464 Left 2 !.meas AC S22_15e9 FIND S22(V1) AT 1.5e9
