Version 4
SHEET 1 1780 772
WIRE 1440 -256 1264 -256
WIRE -1312 -48 -1824 -48
WIRE -96 -48 -464 -48
WIRE 48 -48 -96 -48
WIRE 1376 -48 928 -48
WIRE -1824 32 -1824 -48
WIRE -464 32 -464 -48
WIRE 928 32 928 -48
WIRE -1312 80 -1312 -48
WIRE 48 80 48 32
WIRE 1440 80 1440 -256
WIRE -1376 128 -1456 128
WIRE -96 128 -96 32
WIRE -16 128 -96 128
WIRE 1376 128 1376 -48
WIRE -1824 144 -1824 112
WIRE -464 144 -464 112
WIRE 928 144 928 112
WIRE -1312 208 -1312 176
WIRE -96 208 -96 128
WIRE 48 208 48 176
WIRE -1456 240 -1456 208
WIRE -96 304 -96 288
WIRE 48 304 48 288
WIRE 48 304 -96 304
WIRE 1440 304 1440 176
WIRE 1440 304 1296 304
WIRE -96 320 -96 304
WIRE 1296 320 1296 304
FLAG -464 144 0
FLAG -96 320 0
FLAG -1824 144 0
FLAG -1456 240 0
FLAG -1312 208 0
FLAG 928 144 0
FLAG 1296 320 0
FLAG 1264 -176 0
SYMBOL voltage -464 16 R0
WINDOW 123 0 0 Left 0
WINDOW 39 0 0 Left 0
SYMATTR InstName V2
SYMATTR Value 3.3
SYMBOL npn -16 80 R0
SYMATTR InstName Q1
SYMATTR Value M_BFP640
SYMBOL res -112 -64 R0
SYMATTR InstName R1
SYMATTR Value 2673
SYMBOL res -112 192 R0
SYMATTR InstName R2
SYMATTR Value 1800
SYMBOL res 32 192 R0
SYMATTR InstName Re
SYMATTR Value 160
SYMBOL res 32 -64 R0
SYMATTR InstName Rc
SYMATTR Value 50
SYMBOL npn -1376 80 R0
SYMATTR InstName Q2
SYMATTR Value M_BFP640
SYMBOL voltage -1456 112 R0
WINDOW 123 0 0 Left 0
WINDOW 39 0 0 Left 0
SYMATTR InstName V3
SYMATTR Value 0.7
SYMBOL current -1824 112 R180
WINDOW 0 24 80 Left 2
WINDOW 3 24 0 Left 2
WINDOW 123 0 0 Left 0
WINDOW 39 0 0 Left 0
SYMATTR InstName I1
SYMATTR Value 3e-4
SYMBOL voltage 928 16 R0
WINDOW 123 0 0 Left 0
WINDOW 39 0 0 Left 0
SYMATTR InstName V1
SYMATTR Value 0.8
SYMBOL npn 1376 80 R0
SYMATTR InstName Q3
SYMATTR Value M_BFP640
SYMBOL voltage 1264 -272 R0
WINDOW 123 0 0 Left 0
WINDOW 39 0 0 Left 0
SYMATTR InstName V4
SYMATTR Value 2
TEXT 32 352 Left 2 ;DC-analysis
TEXT -720 648 Left 2 !;tran 0 1 0 0.001
TEXT -2080 648 Left 2 !;tran 0 1 0 0.001
TEXT -2072 -440 Left 5 ;MODEL VERIFICATION
TEXT -696 -440 Left 5 ;DC-BIAS Circuit, Ve: 1.155
TEXT 1424 352 Left 2 ;DC-analysis
TEXT 672 648 Left 2 !.tran 0 1 0 0.001
TEXT 696 -440 Left 5 ;DC-BIAS Circuit, Vce: 2
RECTANGLE Normal 384 640 -720 -496 2
RECTANGLE Normal -976 640 -2080 -496 2
RECTANGLE Normal 1776 640 672 -496 2
