Version 4
SHEET 1 880 680
WIRE 16 -240 -368 -240
WIRE 144 -240 16 -240
WIRE -368 -160 -368 -240
WIRE -368 -48 -368 -80
WIRE 144 -16 144 -240
WIRE 192 -16 144 -16
WIRE 288 -16 256 -16
WIRE 432 -16 288 -16
WIRE 288 32 288 -16
WIRE 432 32 432 -16
WIRE 144 96 144 -16
WIRE 144 112 144 96
WIRE 288 144 288 112
WIRE 432 144 432 96
WIRE -192 176 -384 176
WIRE 16 176 16 -240
WIRE 16 176 -128 176
WIRE 96 176 16 176
WIRE 144 224 144 192
WIRE -384 304 -384 256
FLAG 144 224 0
FLAG 288 144 0
FLAG 432 144 0
FLAG -384 304 0
FLAG -368 -48 0
SYMBOL nmos 96 96 R0
SYMATTR InstName M1
SYMATTR Value Si4838DY
SYMBOL res 272 16 R0
SYMATTR InstName R1
SYMATTR Value 2k
SYMBOL cap 416 32 R0
SYMATTR InstName C1
SYMATTR Value 1e-12
SYMBOL voltage -384 160 R0
WINDOW 123 0 0 Left 0
WINDOW 39 0 0 Left 0
SYMATTR InstName V1
SYMATTR Value SINE(0 0.1 1000)
SYMBOL voltage -368 -176 R0
WINDOW 123 0 0 Left 0
WINDOW 39 0 0 Left 0
SYMATTR InstName V2
SYMATTR Value 3
SYMBOL cap 256 -32 R90
WINDOW 0 0 32 VBottom 2
WINDOW 3 32 32 VTop 2
SYMATTR InstName C2
SYMATTR Value 1µ
SYMATTR SpiceLine V=5
SYMBOL cap -128 160 R90
WINDOW 0 0 32 VBottom 2
WINDOW 3 32 32 VTop 2
SYMATTR InstName C3
SYMATTR Value 1µ
SYMATTR SpiceLine V=5
TEXT -416 328 Left 2 !.tran 0 1 0 1ms
TEXT 128 384 Left 2 ;DRIVING CIRCUIT 1
RECTANGLE Normal 528 416 -512 -336 2
