Version 4
SHEET 1 1100 2360
WIRE 112 -112 -256 -112
WIRE 448 -112 112 -112
WIRE 720 -112 448 -112
WIRE -256 -80 -256 -112
WIRE 112 -80 112 -112
WIRE 720 -80 720 -112
WIRE 656 -32 448 -32
WIRE -256 16 -256 0
WIRE -16 16 -80 16
WIRE 112 16 112 0
WIRE 112 16 48 16
WIRE 384 16 112 16
WIRE -80 32 -80 16
WIRE 112 32 112 16
WIRE 720 32 720 16
WIRE 848 32 720 32
WIRE 992 32 912 32
WIRE 720 80 720 32
WIRE 992 80 992 32
WIRE 448 96 448 64
WIRE 112 144 112 112
WIRE 384 144 112 144
WIRE 448 208 448 192
WIRE 720 208 720 160
WIRE 992 208 992 160
WIRE -32 224 -80 224
WIRE 112 224 112 144
WIRE 112 224 32 224
WIRE 640 288 448 288
WIRE 112 304 112 224
WIRE 448 304 448 288
WIRE 640 304 640 288
WIRE -80 320 -80 224
WIRE 112 400 112 384
WIRE 112 400 -80 400
WIRE 448 400 448 384
WIRE 448 400 112 400
WIRE 640 400 640 368
WIRE 640 400 448 400
WIRE 112 416 112 400
WIRE -80 592 -448 592
WIRE 256 592 -80 592
WIRE 528 592 256 592
WIRE -448 624 -448 592
WIRE -80 624 -80 592
WIRE 528 624 528 592
WIRE 464 672 256 672
WIRE -448 720 -448 704
WIRE -208 720 -272 720
WIRE -80 720 -80 704
WIRE -80 720 -144 720
WIRE 192 720 -80 720
WIRE -272 736 -272 720
WIRE -80 736 -80 720
WIRE 528 736 528 720
WIRE 656 736 528 736
WIRE 800 736 720 736
WIRE 528 784 528 736
WIRE 800 784 800 736
WIRE 256 800 256 768
WIRE -80 848 -80 816
WIRE 192 848 -80 848
WIRE 256 912 256 896
WIRE 528 912 528 864
WIRE 800 912 800 864
WIRE -224 928 -272 928
WIRE -80 928 -80 848
WIRE -80 928 -160 928
WIRE 448 992 256 992
WIRE -80 1008 -80 928
WIRE 256 1008 256 992
WIRE 448 1008 448 992
WIRE -272 1024 -272 928
WIRE -80 1104 -80 1088
WIRE -80 1104 -272 1104
WIRE 256 1104 256 1088
WIRE 256 1104 -80 1104
WIRE 448 1104 448 1072
WIRE 448 1104 256 1104
WIRE -80 1120 -80 1104
WIRE -80 1504 -448 1504
WIRE 256 1504 -80 1504
WIRE 528 1504 256 1504
WIRE -448 1536 -448 1504
WIRE -80 1536 -80 1504
WIRE 528 1536 528 1504
WIRE 464 1584 256 1584
WIRE -448 1632 -448 1616
WIRE -208 1632 -272 1632
WIRE -80 1632 -80 1616
WIRE -80 1632 -144 1632
WIRE 192 1632 -80 1632
WIRE -272 1648 -272 1632
WIRE -80 1648 -80 1632
WIRE 528 1648 528 1632
WIRE 656 1648 528 1648
WIRE 784 1648 720 1648
WIRE 800 1648 784 1648
WIRE 528 1696 528 1648
WIRE 800 1696 800 1648
WIRE 256 1712 256 1680
WIRE -80 1760 -80 1728
WIRE 192 1760 -80 1760
WIRE 256 1824 256 1808
WIRE 528 1824 528 1776
WIRE 800 1824 800 1776
WIRE -224 1840 -272 1840
WIRE -80 1840 -80 1760
WIRE -80 1840 -160 1840
WIRE 448 1904 256 1904
WIRE -80 1920 -80 1840
WIRE 256 1920 256 1904
WIRE 448 1920 448 1904
WIRE -272 1936 -272 1840
WIRE -80 2016 -80 2000
WIRE -80 2016 -272 2016
WIRE 256 2016 256 2000
WIRE 256 2016 -80 2016
WIRE 448 2016 448 1984
WIRE 448 2016 256 2016
WIRE -80 2032 -80 2016
FLAG -256 16 0
FLAG 112 416 0
FLAG -80 224 vin_ac
FLAG -80 32 0
FLAG 720 208 0
FLAG 992 208 0
FLAG 992 32 vout_ef_cscode
FLAG -448 720 0
FLAG -80 1120 0
FLAG -272 736 0
FLAG 528 912 0
FLAG 800 912 0
FLAG -448 1632 0
FLAG -80 2032 0
FLAG -272 1648 0
FLAG 528 1824 0
FLAG 800 1824 0
FLAG 784 1648 out
SYMBOL voltage -256 -96 R0
WINDOW 123 0 0 Left 0
WINDOW 39 0 0 Left 0
SYMATTR InstName Vcc_ac1
SYMATTR Value 5
SYMBOL npn 384 96 R0
SYMATTR InstName Q_ac1
SYMATTR Value M_BFP640
SYMBOL res 96 -96 R0
SYMATTR InstName R1
SYMATTR Value 2.2e3
SYMBOL res 96 288 R0
SYMATTR InstName R2
SYMATTR Value 1e3
SYMBOL res 432 288 R0
SYMATTR InstName Re_ac1
SYMATTR Value 50
SYMBOL res 432 -128 R0
SYMATTR InstName Rc_ac1
SYMATTR Value 200
SYMBOL cap 32 208 R90
WINDOW 0 0 32 VBottom 2
WINDOW 3 32 32 VTop 2
SYMATTR InstName Cin_ac1
SYMATTR Value 10nF
SYMBOL res 96 16 R0
WINDOW 0 47 35 Left 2
WINDOW 3 49 67 Left 2
SYMATTR InstName R3
SYMATTR Value 1e3
SYMBOL npn 384 -32 R0
SYMATTR InstName Q_ac2
SYMATTR Value M_BFP640
SYMBOL cap 48 0 R90
WINDOW 0 0 32 VBottom 2
WINDOW 3 32 32 VTop 2
SYMATTR InstName Cin_ac2
SYMATTR Value 10nF
SYMBOL cap 656 368 R180
WINDOW 0 24 56 Left 2
WINDOW 3 24 8 Left 2
SYMATTR InstName Cin_ac3
SYMATTR Value 10nF
SYMBOL npn 656 -80 R0
SYMATTR InstName Q_ac3
SYMATTR Value M_BFP640
SYMBOL res 704 64 R0
SYMATTR InstName Rc_ac2
SYMATTR Value 200
SYMBOL cap 912 16 R90
WINDOW 0 0 32 VBottom 2
WINDOW 3 32 32 VTop 2
SYMATTR InstName Cin_ac4
SYMATTR Value 100nF
SYMBOL res 976 64 R0
SYMATTR InstName Rc_ac3
SYMATTR Value 50
SYMBOL res 432 192 R0
SYMATTR InstName R4
SYMATTR Value 0
SYMBOL current -80 400 R180
WINDOW 0 24 80 Left 2
WINDOW 3 24 0 Left 2
WINDOW 123 24 -28 Left 2
WINDOW 39 0 0 Left 0
SYMATTR InstName I1
SYMATTR Value ""
SYMATTR Value2 AC 1 0
SYMBOL voltage -448 608 R0
WINDOW 123 0 0 Left 0
WINDOW 39 0 0 Left 0
SYMATTR InstName Vcc_ac2
SYMATTR Value 5
SYMBOL npn 192 800 R0
SYMATTR InstName Q_ac4
SYMATTR Value M_BFP640
SYMBOL res -96 608 R0
SYMATTR InstName R5
SYMATTR Value 2.2e3
SYMBOL res -96 992 R0
SYMATTR InstName R6
SYMATTR Value 1e3
SYMBOL res 240 992 R0
SYMATTR InstName Re_ac2
SYMATTR Value 50
SYMBOL res 240 576 R0
SYMATTR InstName Rc_ac4
SYMATTR Value 200
SYMBOL cap -160 912 R90
WINDOW 0 0 32 VBottom 2
WINDOW 3 32 32 VTop 2
SYMATTR InstName Cin_ac5
SYMATTR Value 100nF
SYMBOL res -96 720 R0
WINDOW 0 47 35 Left 2
WINDOW 3 49 67 Left 2
SYMATTR InstName R7
SYMATTR Value 1e3
SYMBOL npn 192 672 R0
SYMATTR InstName Q_ac5
SYMATTR Value M_BFP640
SYMBOL cap -144 704 R90
WINDOW 0 0 32 VBottom 2
WINDOW 3 32 32 VTop 2
SYMATTR InstName Cin_ac6
SYMATTR Value 100nF
SYMBOL cap 464 1072 R180
WINDOW 0 24 56 Left 2
WINDOW 3 24 8 Left 2
SYMATTR InstName Cin_ac7
SYMATTR Value 100nF
SYMBOL npn 464 624 R0
SYMATTR InstName Q_ac6
SYMATTR Value M_BFP640
SYMBOL res 512 768 R0
SYMATTR InstName Rc_ac5
SYMATTR Value 200
SYMBOL cap 720 720 R90
WINDOW 0 0 32 VBottom 2
WINDOW 3 32 32 VTop 2
SYMATTR InstName Cin_ac8
SYMATTR Value 100nF
SYMBOL res 784 768 R0
SYMATTR InstName Rout
SYMATTR Value 50
SYMBOL res 240 896 R0
SYMATTR InstName R8
SYMATTR Value 0
SYMBOL voltage -272 1008 R0
WINDOW 123 24 124 Left 2
WINDOW 39 24 152 Left 2
SYMATTR Value2 AC 1 0
SYMATTR SpiceLine Rser=50
SYMATTR InstName V1
SYMATTR Value ""
SYMBOL voltage -448 1520 R0
WINDOW 123 0 0 Left 0
WINDOW 39 0 0 Left 0
SYMATTR InstName Vcc_ac3
SYMATTR Value 5
SYMBOL npn 192 1712 R0
SYMATTR InstName Q_ac7
SYMATTR Value M_BFP640
SYMBOL res -96 1520 R0
SYMATTR InstName R9
SYMATTR Value 2.2e3
SYMBOL res -96 1904 R0
SYMATTR InstName R10
SYMATTR Value 1e3
SYMBOL res 240 1904 R0
SYMATTR InstName Re_ac3
SYMATTR Value 50
SYMBOL res 240 1488 R0
SYMATTR InstName Rc_ac6
SYMATTR Value 200
SYMBOL cap -160 1824 R90
WINDOW 0 0 32 VBottom 2
WINDOW 3 32 32 VTop 2
SYMATTR InstName Cin_ac9
SYMATTR Value 100nF
SYMBOL res -96 1632 R0
WINDOW 0 47 35 Left 2
WINDOW 3 49 67 Left 2
SYMATTR InstName R11
SYMATTR Value 1e3
SYMBOL npn 192 1584 R0
SYMATTR InstName Q_ac8
SYMATTR Value M_BFP640
SYMBOL cap -144 1616 R90
WINDOW 0 0 32 VBottom 2
WINDOW 3 32 32 VTop 2
SYMATTR InstName Cin_ac10
SYMATTR Value 100nF
SYMBOL cap 464 1984 R180
WINDOW 0 24 56 Left 2
WINDOW 3 24 8 Left 2
SYMATTR InstName Cin_ac11
SYMATTR Value 100nF
SYMBOL npn 464 1536 R0
SYMATTR InstName Q_ac9
SYMATTR Value M_BFP640
SYMBOL res 512 1680 R0
SYMATTR InstName Rc_ac7
SYMATTR Value 200
SYMBOL cap 720 1632 R90
WINDOW 0 0 32 VBottom 2
WINDOW 3 32 32 VTop 2
SYMATTR InstName Cin_ac12
SYMATTR Value 100nF
SYMBOL res 784 1680 R0
SYMATTR InstName Rout1
SYMATTR Value 50
SYMBOL res 240 1808 R0
SYMATTR InstName R12
SYMATTR Value 0
SYMBOL voltage -272 1920 R0
WINDOW 123 24 124 Left 2
WINDOW 39 24 152 Left 2
SYMATTR Value2 AC 1 0
SYMATTR SpiceLine Rser=50
SYMATTR InstName V2
SYMATTR Value ""
TEXT -744 -16 Left 2 !;ac lin 1e10 1e8 2e9
TEXT -888 96 Left 2 !.meas AC z_in_L1 FIND V(vin_ac) /  I(I1) AT 1.57542e9
TEXT -888 136 Left 2 !.meas AC z_in PARAM V(vin_ac) / I(I1)
TEXT -256 2344 Left 2 !.net I(Rout) V1  ; Rin & Rout determined from V4 and Rout
TEXT -880 776 Left 2 ;S-PARAMETERS
TEXT -800 1808 Left 2 ;NOISE
TEXT -784 2008 Left 2 !.noise V(out) V2 dec 100 1e3 10e9
