Version 4
SHEET 1 9212 2740
WIRE 2560 -288 2192 -288
WIRE 2704 -288 2560 -288
WIRE 2560 -256 2560 -288
WIRE 2704 -256 2704 -288
WIRE 2560 -144 2560 -176
WIRE 2704 -144 2704 -176
WIRE 2192 -48 2192 -288
WIRE 2704 -32 2704 -64
WIRE 2784 -32 2704 -32
WIRE 2992 -32 2848 -32
WIRE 2992 -16 2992 -32
WIRE 2704 0 2704 -32
WIRE 2416 48 2368 48
WIRE 2560 48 2560 -64
WIRE 2560 48 2480 48
WIRE 2640 48 2560 48
WIRE 2192 64 2192 32
WIRE 2368 64 2368 48
WIRE 2704 112 2704 96
WIRE 2800 112 2704 112
WIRE 2560 160 2560 48
WIRE 2704 160 2704 112
WIRE 2560 272 2560 240
WIRE 2704 272 2704 240
WIRE 2800 272 2800 112
WIRE 2368 416 2368 144
WIRE 2560 416 2560 352
WIRE 2560 416 2368 416
WIRE 2704 416 2704 352
WIRE 2704 416 2560 416
WIRE 2800 416 2800 336
WIRE 2800 416 2704 416
WIRE 2992 416 2992 64
WIRE 2992 416 2800 416
WIRE 2560 432 2560 416
FLAG 2192 64 0
FLAG 2560 432 0
FLAG 2368 48 vin_ac_50
SYMBOL voltage 2192 -64 R0
WINDOW 123 0 0 Left 0
WINDOW 39 0 0 Left 0
SYMATTR InstName Vcc_ac_50
SYMATTR Value 5
SYMBOL npn 2640 0 R0
SYMATTR InstName Q_ac_50
SYMATTR Value M_BFP640
SYMBOL res 2544 -160 R0
SYMATTR InstName R1_ac_50
SYMATTR Value 1000
SYMBOL res 2544 256 R0
WINDOW 0 -125 47 Left 2
SYMATTR InstName R2_ac_50
SYMATTR Value 330
SYMBOL res 2688 256 R0
WINDOW 0 -58 132 Left 2
WINDOW 3 -33 47 Left 2
SYMATTR InstName Re_ac_50
SYMATTR Value 50
SYMBOL res 2688 -160 R0
SYMATTR InstName Rc_ac_50
SYMATTR Value 200
SYMBOL res 2976 -32 R0
SYMATTR InstName RL_out_50
SYMATTR Value 50
SYMBOL cap 2784 272 R0
SYMATTR InstName Ce_ac_50
SYMATTR Value 2.2nF
SYMBOL cap 2848 -48 R90
WINDOW 0 -25 -49 VBottom 2
WINDOW 3 -16 -22 VTop 2
SYMATTR InstName Cout_ac_50
SYMATTR Value 2nF
SYMBOL cap 2480 32 R90
WINDOW 0 -25 14 VBottom 2
WINDOW 3 32 32 VTop 2
SYMATTR InstName Cin_ac_50
SYMATTR Value 2nF
SYMBOL voltage 2368 48 R0
WINDOW 0 14 113 Left 2
WINDOW 3 -550 33 Left 2
WINDOW 123 -549 69 Left 2
WINDOW 39 -555 103 Left 2
SYMATTR InstName vin_ac_50
SYMATTR Value SINE(0 1e-3 868e6 0 0 0 100000)
SYMATTR Value2 AC 1
SYMATTR SpiceLine Rser=50
SYMBOL ind 2544 -272 R0
SYMATTR InstName L1
SYMATTR Value 0H
SYMBOL ind 2688 -272 R0
SYMATTR InstName L2
SYMATTR Value 0H
SYMBOL ind 2544 144 R0
SYMATTR InstName L3
SYMATTR Value 0H
SYMBOL ind 2688 144 R0
SYMATTR InstName L4
SYMATTR Value 0H
TEXT 2688 464 Left 2 ;DC-analysis
TEXT 2328 -472 Left 5 ;DC-BIAS Circuit, Vcc: 5V
TEXT 1176 344 Left 2 !*\n.MODEL          M_BFP640        NPN(\n+               TNOM = 25\n+               IS              =               1.239E-015\n+               BF              =               887.6\n+               NF              =               1\n+               VAF             =               1000\n+               IKF             =               0.1433\n+               ISE             =               1E-014\n+               NE              =               2\n+               BR              =               148.3\n+               NR              =               1\n+               VAR             =               1.202\n+               IKR             =               0.01\n+               ISC             =               2.948E-015\n+               NC              =               2\n+               RB              =               5.016\n+               IRB             =               0\n+               RBM             =               1.977\n+               RE              =               0.3592\n+               RC              =               2.953\n+               XTB             =               -2.576\n+               EG              =               1.09\n+               XTI             =               0.15\n+               CJE             =               4.58707E-013\n+               VJE             =               1.76884\n+               MJE             =               0.164326\n+               TF              =               2.13534E-012\n+               XTF             =               1\n+               VTF             =               0.03\n+               ITF             =               2\n+               PTF             =               0.1\n+               CJC             =               6.62237E-014\n+               VJC             =               0.936235\n+               MJC             =               1.16702\n+               XCJC            =               1\n+               TR              =               1E-009\n+               CJS             =               1.20379E-013\n+               MJS             =               0.3\n+   VJS =   1\n+               FC              =               0.5\n+               KF              =               1.981E-012\n+               AF              =               1.552)\n***************************************************************\n*\n.ENDS BFP640
TEXT 2104 256 Left 2 ;.ac lin 1e5 0.1e9 2e9
TEXT 1816 256 Left 2 !.tran 0 1e-5 0 1e-11
TEXT 2072 -232 Left 2 !.net I(RL_out_50) vin_ac_50  ;
TEXT 1808 312 Left 2 !.opt meascplxfmt=bode
TEXT 2240 -320 Left 2 ;S-PARAMETERS
TEXT 1816 352 Left 2 !.lib Infineon_RFTransistor.lib
