Version 4
SHEET 1 9212 2740
WIRE 2736 -288 1232 -288
WIRE 3104 -288 2736 -288
WIRE 2736 -256 2736 -288
WIRE 1232 -160 1232 -288
WIRE 2736 -144 2736 -176
WIRE 3104 -144 3104 -288
WIRE 3104 -32 3104 -64
WIRE 3280 -32 3104 -32
WIRE 3504 -32 3344 -32
WIRE 3648 -32 3504 -32
WIRE 3872 -32 3712 -32
WIRE 3104 0 3104 -32
WIRE 2240 48 2096 48
WIRE 2384 48 2304 48
WIRE 2464 48 2384 48
WIRE 2736 48 2736 -64
WIRE 2736 48 2528 48
WIRE 3040 48 2736 48
WIRE 1232 64 1232 -80
WIRE 2736 128 2736 48
WIRE 3104 128 3104 96
WIRE 3872 128 3872 -32
WIRE 2096 176 2096 48
WIRE 3504 176 3504 -32
WIRE 2384 192 2384 48
WIRE 3104 240 3104 208
WIRE 3200 240 3104 240
WIRE 2736 272 2736 208
WIRE 3104 272 3104 240
WIRE 3200 288 3200 240
WIRE 2096 416 2096 256
WIRE 2384 416 2384 272
WIRE 2384 416 2096 416
WIRE 2736 416 2736 352
WIRE 2736 416 2384 416
WIRE 3104 416 3104 352
WIRE 3104 416 2736 416
WIRE 3200 416 3200 352
WIRE 3200 416 3104 416
WIRE 3504 416 3504 256
WIRE 3504 416 3200 416
WIRE 3872 416 3872 208
WIRE 3872 416 3504 416
WIRE 2736 496 2736 416
FLAG 1232 64 0
FLAG 2736 496 0
FLAG 2096 48 vin_ac_50
SYMBOL voltage 1232 -176 R0
WINDOW 123 0 0 Left 0
WINDOW 39 0 0 Left 0
SYMATTR InstName Vcc_ac_50
SYMATTR Value 5
SYMBOL npn 3040 0 R0
SYMATTR InstName Q_ac_50
SYMATTR Value M_BFP640
SYMBOL res 2720 -160 R0
SYMATTR InstName R1_ac_50
SYMATTR Value 1k
SYMBOL res 2720 112 R0
WINDOW 0 -125 47 Left 2
SYMATTR InstName R2_ac_50
SYMATTR Value 330
SYMBOL res 3088 256 R0
WINDOW 0 -58 132 Left 2
WINDOW 3 -33 47 Left 2
SYMATTR InstName Re_ac_50
SYMATTR Value 47
SYMBOL res 3088 -160 R0
SYMATTR InstName Rc_ac_50
SYMATTR Value 200
SYMBOL res 3856 112 R0
SYMATTR InstName RL_out_50
SYMATTR Value 50
SYMBOL cap 3184 288 R0
SYMATTR InstName Ce_ac_50
SYMATTR Value 2.2nF
SYMBOL voltage 2096 160 R0
WINDOW 0 14 113 Left 2
WINDOW 3 -969 -189 Left 2
WINDOW 123 -878 -142 Left 2
WINDOW 39 -881 -258 Left 2
SYMATTR InstName v1
SYMATTR Value SINE(0 1e-3 868e6 0 0 0 100000)
SYMATTR Value2 AC 1
SYMATTR SpiceLine Rser=50
SYMBOL ind 2720 -272 R0
SYMATTR InstName L1
SYMATTR Value 160nH
SYMBOL ind 2720 256 R0
SYMATTR InstName L3
SYMATTR Value 160nH
SYMBOL cap 3344 -48 R90
WINDOW 0 0 32 VBottom 2
WINDOW 3 32 32 VTop 2
SYMATTR InstName C1
SYMATTR Value 1pF
SYMBOL cap 3712 -48 R90
WINDOW 0 0 32 VBottom 2
WINDOW 3 32 32 VTop 2
SYMATTR InstName C2
SYMATTR Value 1pF
SYMBOL ind 3488 160 R0
SYMATTR InstName L2
SYMATTR Value 24nH
SYMBOL cap 2304 32 R90
WINDOW 0 0 32 VBottom 2
WINDOW 3 32 32 VTop 2
SYMATTR InstName C4
SYMATTR Value 1pF
SYMBOL cap 2528 32 R90
WINDOW 0 0 32 VBottom 2
WINDOW 3 32 32 VTop 2
SYMATTR InstName C5
SYMATTR Value 6.8pF
SYMBOL ind 2368 176 R0
SYMATTR InstName L4
SYMATTR Value 16nH
SYMBOL res 3088 112 R0
SYMATTR InstName R1
SYMATTR Value 0
TEXT 3088 464 Left 2 ;DC-analysis
TEXT 2328 -472 Left 5 ;DC-BIAS Circuit, Vcc: 5V
TEXT 1176 344 Left 2 !*\n.MODEL          M_BFP640        NPN(\n+               TNOM = 25\n+               IS              =               1.239E-015\n+               BF              =               887.6\n+               NF              =               1\n+               VAF             =               1000\n+               IKF             =               0.1433\n+               ISE             =               1E-014\n+               NE              =               2\n+               BR              =               148.3\n+               NR              =               1\n+               VAR             =               1.202\n+               IKR             =               0.01\n+               ISC             =               2.948E-015\n+               NC              =               2\n+               RB              =               5.016\n+               IRB             =               0\n+               RBM             =               1.977\n+               RE              =               0.3592\n+               RC              =               2.953\n+               XTB             =               -2.576\n+               EG              =               1.09\n+               XTI             =               0.15\n+               CJE             =               4.58707E-013\n+               VJE             =               1.76884\n+               MJE             =               0.164326\n+               TF              =               2.13534E-012\n+               XTF             =               1\n+               VTF             =               0.03\n+               ITF             =               2\n+               PTF             =               0.1\n+               CJC             =               6.62237E-014\n+               VJC             =               0.936235\n+               MJC             =               1.16702\n+               XCJC            =               1\n+               TR              =               1E-009\n+               CJS             =               1.20379E-013\n+               MJS             =               0.3\n+   VJS =   1\n+               FC              =               0.5\n+               KF              =               1.981E-012\n+               AF              =               1.552)\n***************************************************************\n*\n.ENDS BFP640
TEXT 1664 88 Left 2 !.ac lin 1e5 0.1e9 2e9
TEXT 1376 88 Left 2 ;.tran 0 1e-5 0 1e-11
TEXT 2072 -232 Left 2 !.net I(RL_out_50) v1;
TEXT 1368 144 Left 2 !.opt meascplxfmt=bode
TEXT 2240 -320 Left 2 ;S-PARAMETERS
TEXT 1376 184 Left 2 !.lib Infineon_RFTransistor.lib
TEXT 3408 1184 Left 2 ;( 1-POW(S11(v1),2)- POW(S22(v1),2)  + POW(S12(v1)*S21(v1),2)) / (2*abs(S12(v1)) * abs(S21(v1)) )
TEXT 3136 648 Left 2 !.meas AC delta FIND (S11(v1) * S22(v1) - S21(v1)*S12(v1)) WHEN frequency=868e6
